# Run_Name
gemc_CH3Cl.out
!------------------------------------------------------------------------------

# Sim_Type
gemc
!------------------------------------------------------------------------------

# Nbr_Species
1
!------------------------------------------------------------------------------

# VDW_Style
LJ   cut_tail   14.00
LJ   cut_tail   14.00
!------------------------------------------------------------------------------

# Charge_Style
coul ewald 14.0 1e-5
coul ewald 14.0 1e-5
!------------------------------------------------------------------------------cJ

# Rcutoff_Low
1.0
!------------------------------------------------------------------------------

# Mixing_Rule
geometric
!------------------------------------------------------------------------------cJ

# Pair_energy
true
!------------------------------------------------------------------------------cJ

# Molecule_Files
CH3Cl.mcf 500
!----------------------------------------------------------one line per species

# Box_Info
2
cubic
33.00

cubic
45.00
!-------------------------------------------------------line 1: number of boxes
!--------------------------------------------------------------line 2: box type
!--------------------------------------------------------------line 3: box size

# Temperature_Info
#TEMP#
#TEMP#
!----------------------------------------------------------one temperature per box

# Pressure_Info
1.0
1.0
!----------------------------------------------------------cJ

# Move_Probability_Info

# Prob_Translation
0.3
0.15
1.0

# Prob_Rotation
0.2
30.0
30.0

# Prob_Regrowth
0.18
1.0

# Prob_Volume
0.02
300.0

# Prob_Swap
0.3
cbmc cmc

# Done_Probability_Info
!---------------------one line for each box and one entry/line for each species

# Start_Type
make_config 450
make_config 50
!------------------------------------------------------------read_old: filename

# Run_Type
Equilibration 100 100

# Simulation_Length_Info
Units       Steps
Prop_Freq   10000
Coord_Freq  10000
Run         3 000 000

# Seed
1211131639 1211131640
!------------------------------------------------------------------------------

# Property_Info 1
mass_density
Nmols
Volume
Pressure
energy_total
energy_bond
energy_angle
energy_dihedral
energy_improper
energy_intravdw
energy_intraq
energy_intervdw
energy_lrc
energy_interq
energy_recip
energy_self
!------------------------------------------------------------------------------

# Property_Info 2
mass_density
Nmols
Volume
Pressure
energy_total
energy_bond
energy_angle
energy_dihedral
energy_improper
energy_intravdw
energy_intraq
energy_intervdw
energy_lrc
energy_interq
energy_recip
energy_self
!------------------------------------------------------------------------------

# Fragment_Files
../00-COMMON/species1/frag1/frag1.dat  1
!---------------------------------------------------------one line per fragment

# CBMC_Info
kappa_ins 12
rcut_cbmc 6.5 6.5
!------------------------------------------------------------------------------

# Average_Info
1

# Verbose_Logfile
TRUE

# Pair_energy
TRUE

END
